Circuit: * D:\github-stuff\Irrigation_System\driver_simulation\Draft1.asc

Direct Newton iteration for .op point succeeded.

Date: Sun Sep 25 14:41:29 2022
Total elapsed time: 0.179 seconds.

tnom = 27
temp = 27
method = modified trap
totiter = 2126
traniter = 2096
tranpoints = 1049
accept = 1049
rejected = 0
matrix size = 20
fillins = 8
solver = Normal
Matrix Compiler1:      81 opcodes  0.3/[0.2]/0.2
Matrix Compiler2: off  [0.2]/0.2/0.3

