Circuit: * D:\github-stuff\Irrigation_System\driver_simulation\solenoid_driver.asc

Direct Newton iteration for .op point succeeded.

Date: Fri Aug 12 23:04:36 2022
Total elapsed time: 0.842 seconds.

tnom = 27
temp = 27
method = modified trap
totiter = 25626
traniter = 25613
tranpoints = 8568
accept = 6259
rejected = 2309
matrix size = 61
fillins = 2
solver = Normal
Matrix Compiler1: 3.12 KB object code size  0.6/0.4/[0.2]
Matrix Compiler2: 4.63 KB object code size  0.4/0.5/[0.2]

