Circuit: * C:\Users\beia\Documents\GitHub\Irrigation_System\driver_simulation\solenoid_driver.asc

Direct Newton iteration for .op point succeeded.

Date: Fri Aug 12 13:03:53 2022
Total elapsed time: 0.361 seconds.

tnom = 27
temp = 27
method = modified trap
totiter = 19110
traniter = 19096
tranpoints = 6673
accept = 5007
rejected = 1666
matrix size = 53
fillins = 0
solver = Normal
Matrix Compiler1: 2.63 KB object code size  0.8/0.5/[0.3]
Matrix Compiler2: off  [0.5]/0.7/0.8

