Circuit: * D:\github-stuff\Irrigation_System\driver_simulation\solenoid_driver.asc

Direct Newton iteration for .op point succeeded.

Date: Thu Aug 11 10:01:24 2022
Total elapsed time: 0.399 seconds.

tnom = 27
temp = 27
method = modified trap
totiter = 18668
traniter = 18654
tranpoints = 6530
accept = 4943
rejected = 1587
matrix size = 39
fillins = 0
solver = Normal
Matrix Compiler1: 1.84 KB object code size  0.4/0.3/[0.1]
Matrix Compiler2: 2.88 KB object code size  0.9/0.4/[0.3]

